<routes>
  <vType accel="2.6" decel="5.0" id="CarA" maxSpeed="13.9" minGap="2.0" sigma="0.5"/>
 <!-- routes -->
  <route id="route1" edges="D5 D6" /> <!-- W2E -->
  <route id="route2" edges="D7 D8" /> <!-- E2W -->
  <route id="route3" edges="D1 D2" /> <!-- S2N -->
  <route id="route4" edges="D3 D4" /> <!-- N2S -->
  <route id="route5" edges="D5 D4" /> <!-- W2S -->
  <route id="route6" edges="D5 D2" /> <!-- W2N -->
  <route id="route7" edges="D7 D2" /> <!-- E2N -->
  <route id="route8" edges="D7 D4" /> <!-- E2S -->
  <route id="route9" edges="D1 D6" /> <!-- S2W -->
  <route id="route10" edges="D1 D8" /> <!-- S2E -->
  <route id="route11" edges="D3 D8" /> <!-- N2W -->
  <route id="route12" edges="D3 D6" /> <!-- N2E -->
  <vehicle depart="1" id="0" route="route6" type="CarA"/>
  <vehicle depart="1" id="1" route="route2" type="CarA"/>
  <vehicle depart="1" id="2" route="route12" type="CarA"/>
  <vehicle depart="2" id="3" route="route8" type="CarA"/>
  <vehicle depart="4" id="4" route="route6" type="CarA"/>
  <vehicle depart="7" id="5" route="route11" type="CarA"/>
  <vehicle depart="8" id="6" route="route1" type="CarA"/>
  <vehicle depart="9" id="7" route="route6" type="CarA"/>
  <vehicle depart="9" id="8" route="route12" type="CarA"/>
  <vehicle depart="10" id="9" route="route12" type="CarA"/>
  <vehicle depart="10" id="10" route="route12" type="CarA"/>
  <vehicle depart="10" id="11" route="route8" type="CarA"/>
  <vehicle depart="10" id="12" route="route5" type="CarA"/>
  <vehicle depart="11" id="13" route="route4" type="CarA"/>
  <vehicle depart="13" id="14" route="route5" type="CarA"/>
  <vehicle depart="15" id="15" route="route11" type="CarA"/>
  <vehicle depart="16" id="16" route="route3" type="CarA"/>
  <vehicle depart="17" id="17" route="route6" type="CarA"/>
  <vehicle depart="19" id="18" route="route12" type="CarA"/>
  <vehicle depart="21" id="19" route="route11" type="CarA"/>
  <vehicle depart="22" id="20" route="route1" type="CarA"/>
  <vehicle depart="23" id="21" route="route6" type="CarA"/>
  <vehicle depart="25" id="22" route="route3" type="CarA"/>
  <vehicle depart="25" id="23" route="route4" type="CarA"/>
  <vehicle depart="25" id="24" route="route1" type="CarA"/>
  <vehicle depart="27" id="25" route="route11" type="CarA"/>
  <vehicle depart="27" id="26" route="route4" type="CarA"/>
  <vehicle depart="30" id="27" route="route8" type="CarA"/>
  <vehicle depart="32" id="28" route="route7" type="CarA"/>
  <vehicle depart="33" id="29" route="route3" type="CarA"/>
  <vehicle depart="35" id="30" route="route7" type="CarA"/>
  <vehicle depart="35" id="31" route="route2" type="CarA"/>
  <vehicle depart="38" id="32" route="route12" type="CarA"/>
  <vehicle depart="39" id="33" route="route7" type="CarA"/>
  <vehicle depart="41" id="34" route="route4" type="CarA"/>
  <vehicle depart="41" id="35" route="route2" type="CarA"/>
  <vehicle depart="41" id="36" route="route2" type="CarA"/>
  <vehicle depart="41" id="37" route="route12" type="CarA"/>
  <vehicle depart="41" id="38" route="route1" type="CarA"/>
  <vehicle depart="41" id="39" route="route7" type="CarA"/>
  <vehicle depart="42" id="40" route="route11" type="CarA"/>
  <vehicle depart="43" id="41" route="route4" type="CarA"/>
  <vehicle depart="46" id="42" route="route4" type="CarA"/>
  <vehicle depart="46" id="43" route="route10" type="CarA"/>
  <vehicle depart="46" id="44" route="route7" type="CarA"/>
  <vehicle depart="48" id="45" route="route12" type="CarA"/>
  <vehicle depart="50" id="46" route="route6" type="CarA"/>
  <vehicle depart="50" id="47" route="route12" type="CarA"/>
  <vehicle depart="51" id="48" route="route11" type="CarA"/>
  <vehicle depart="52" id="49" route="route3" type="CarA"/>
  <vehicle depart="52" id="50" route="route5" type="CarA"/>
  <vehicle depart="54" id="51" route="route5" type="CarA"/>
  <vehicle depart="55" id="52" route="route10" type="CarA"/>
  <vehicle depart="55" id="53" route="route10" type="CarA"/>
  <vehicle depart="55" id="54" route="route9" type="CarA"/>
  <vehicle depart="56" id="55" route="route8" type="CarA"/>
  <vehicle depart="57" id="56" route="route10" type="CarA"/>
  <vehicle depart="57" id="57" route="route12" type="CarA"/>
  <vehicle depart="58" id="58" route="route10" type="CarA"/>
  <vehicle depart="59" id="59" route="route2" type="CarA"/>
  <vehicle depart="59" id="60" route="route1" type="CarA"/>
  <vehicle depart="60" id="61" route="route1" type="CarA"/>
  <vehicle depart="60" id="62" route="route12" type="CarA"/>
  <vehicle depart="62" id="63" route="route7" type="CarA"/>
  <vehicle depart="63" id="64" route="route11" type="CarA"/>
  <vehicle depart="63" id="65" route="route9" type="CarA"/>
  <vehicle depart="63" id="66" route="route2" type="CarA"/>
  <vehicle depart="65" id="67" route="route7" type="CarA"/>
  <vehicle depart="65" id="68" route="route12" type="CarA"/>
  <vehicle depart="65" id="69" route="route11" type="CarA"/>
  <vehicle depart="66" id="70" route="route4" type="CarA"/>
  <vehicle depart="68" id="71" route="route11" type="CarA"/>
  <vehicle depart="69" id="72" route="route7" type="CarA"/>
  <vehicle depart="70" id="73" route="route5" type="CarA"/>
  <vehicle depart="70" id="74" route="route11" type="CarA"/>
  <vehicle depart="73" id="75" route="route4" type="CarA"/>
  <vehicle depart="73" id="76" route="route10" type="CarA"/>
  <vehicle depart="75" id="77" route="route8" type="CarA"/>
  <vehicle depart="76" id="78" route="route8" type="CarA"/>
  <vehicle depart="77" id="79" route="route7" type="CarA"/>
  <vehicle depart="78" id="80" route="route8" type="CarA"/>
  <vehicle depart="80" id="81" route="route11" type="CarA"/>
  <vehicle depart="83" id="82" route="route4" type="CarA"/>
  <vehicle depart="83" id="83" route="route11" type="CarA"/>
  <vehicle depart="84" id="84" route="route11" type="CarA"/>
  <vehicle depart="84" id="85" route="route6" type="CarA"/>
  <vehicle depart="85" id="86" route="route11" type="CarA"/>
  <vehicle depart="86" id="87" route="route1" type="CarA"/>
  <vehicle depart="86" id="88" route="route6" type="CarA"/>
  <vehicle depart="87" id="89" route="route5" type="CarA"/>
  <vehicle depart="88" id="90" route="route3" type="CarA"/>
  <vehicle depart="89" id="91" route="route9" type="CarA"/>
  <vehicle depart="90" id="92" route="route9" type="CarA"/>
  <vehicle depart="90" id="93" route="route8" type="CarA"/>
  <vehicle depart="90" id="94" route="route6" type="CarA"/>
  <vehicle depart="90" id="95" route="route6" type="CarA"/>
  <vehicle depart="90" id="96" route="route8" type="CarA"/>
  <vehicle depart="91" id="97" route="route4" type="CarA"/>
  <vehicle depart="93" id="98" route="route9" type="CarA"/>
  <vehicle depart="93" id="99" route="route12" type="CarA"/>
  <vehicle depart="94" id="100" route="route9" type="CarA"/>
  <vehicle depart="95" id="101" route="route12" type="CarA"/>
  <vehicle depart="95" id="102" route="route4" type="CarA"/>
  <vehicle depart="95" id="103" route="route1" type="CarA"/>
  <vehicle depart="95" id="104" route="route9" type="CarA"/>
  <vehicle depart="95" id="105" route="route5" type="CarA"/>
  <vehicle depart="96" id="106" route="route4" type="CarA"/>
  <vehicle depart="98" id="107" route="route5" type="CarA"/>
  <vehicle depart="99" id="108" route="route12" type="CarA"/>
  <vehicle depart="99" id="109" route="route11" type="CarA"/>
  <vehicle depart="101" id="110" route="route12" type="CarA"/>
  <vehicle depart="101" id="111" route="route9" type="CarA"/>
  <vehicle depart="104" id="112" route="route5" type="CarA"/>
  <vehicle depart="104" id="113" route="route7" type="CarA"/>
  <vehicle depart="105" id="114" route="route9" type="CarA"/>
  <vehicle depart="108" id="115" route="route10" type="CarA"/>
  <vehicle depart="108" id="116" route="route2" type="CarA"/>
  <vehicle depart="108" id="117" route="route5" type="CarA"/>
  <vehicle depart="108" id="118" route="route7" type="CarA"/>
  <vehicle depart="109" id="119" route="route1" type="CarA"/>
  <vehicle depart="109" id="120" route="route9" type="CarA"/>
  <vehicle depart="109" id="121" route="route2" type="CarA"/>
  <vehicle depart="110" id="122" route="route8" type="CarA"/>
  <vehicle depart="111" id="123" route="route8" type="CarA"/>
  <vehicle depart="114" id="124" route="route2" type="CarA"/>
  <vehicle depart="116" id="125" route="route1" type="CarA"/>
  <vehicle depart="117" id="126" route="route11" type="CarA"/>
  <vehicle depart="118" id="127" route="route12" type="CarA"/>
  <vehicle depart="121" id="128" route="route7" type="CarA"/>
  <vehicle depart="122" id="129" route="route3" type="CarA"/>
  <vehicle depart="122" id="130" route="route8" type="CarA"/>
  <vehicle depart="123" id="131" route="route11" type="CarA"/>
  <vehicle depart="123" id="132" route="route4" type="CarA"/>
  <vehicle depart="124" id="133" route="route8" type="CarA"/>
  <vehicle depart="125" id="134" route="route9" type="CarA"/>
  <vehicle depart="125" id="135" route="route7" type="CarA"/>
  <vehicle depart="126" id="136" route="route9" type="CarA"/>
  <vehicle depart="131" id="137" route="route1" type="CarA"/>
  <vehicle depart="131" id="138" route="route4" type="CarA"/>
  <vehicle depart="132" id="139" route="route12" type="CarA"/>
  <vehicle depart="134" id="140" route="route9" type="CarA"/>
  <vehicle depart="134" id="141" route="route5" type="CarA"/>
  <vehicle depart="136" id="142" route="route1" type="CarA"/>
  <vehicle depart="136" id="143" route="route5" type="CarA"/>
  <vehicle depart="137" id="144" route="route4" type="CarA"/>
  <vehicle depart="139" id="145" route="route10" type="CarA"/>
  <vehicle depart="142" id="146" route="route11" type="CarA"/>
  <vehicle depart="143" id="147" route="route2" type="CarA"/>
  <vehicle depart="144" id="148" route="route7" type="CarA"/>
  <vehicle depart="145" id="149" route="route7" type="CarA"/>
  <vehicle depart="146" id="150" route="route5" type="CarA"/>
  <vehicle depart="150" id="151" route="route4" type="CarA"/>
  <vehicle depart="151" id="152" route="route2" type="CarA"/>
  <vehicle depart="151" id="153" route="route6" type="CarA"/>
  <vehicle depart="153" id="154" route="route7" type="CarA"/>
  <vehicle depart="153" id="155" route="route2" type="CarA"/>
  <vehicle depart="153" id="156" route="route7" type="CarA"/>
  <vehicle depart="154" id="157" route="route3" type="CarA"/>
  <vehicle depart="155" id="158" route="route7" type="CarA"/>
  <vehicle depart="157" id="159" route="route8" type="CarA"/>
  <vehicle depart="160" id="160" route="route1" type="CarA"/>
  <vehicle depart="161" id="161" route="route2" type="CarA"/>
  <vehicle depart="162" id="162" route="route11" type="CarA"/>
  <vehicle depart="162" id="163" route="route7" type="CarA"/>
  <vehicle depart="162" id="164" route="route4" type="CarA"/>
  <vehicle depart="164" id="165" route="route2" type="CarA"/>
  <vehicle depart="165" id="166" route="route6" type="CarA"/>
  <vehicle depart="166" id="167" route="route11" type="CarA"/>
  <vehicle depart="168" id="168" route="route3" type="CarA"/>
  <vehicle depart="169" id="169" route="route10" type="CarA"/>
  <vehicle depart="169" id="170" route="route10" type="CarA"/>
  <vehicle depart="170" id="171" route="route2" type="CarA"/>
  <vehicle depart="171" id="172" route="route12" type="CarA"/>
  <vehicle depart="172" id="173" route="route2" type="CarA"/>
  <vehicle depart="173" id="174" route="route7" type="CarA"/>
  <vehicle depart="175" id="175" route="route2" type="CarA"/>
  <vehicle depart="178" id="176" route="route3" type="CarA"/>
  <vehicle depart="178" id="177" route="route4" type="CarA"/>
  <vehicle depart="181" id="178" route="route2" type="CarA"/>
  <vehicle depart="181" id="179" route="route7" type="CarA"/>
  <vehicle depart="181" id="180" route="route5" type="CarA"/>
  <vehicle depart="181" id="181" route="route4" type="CarA"/>
  <vehicle depart="181" id="182" route="route3" type="CarA"/>
  <vehicle depart="184" id="183" route="route10" type="CarA"/>
  <vehicle depart="186" id="184" route="route8" type="CarA"/>
  <vehicle depart="188" id="185" route="route1" type="CarA"/>
  <vehicle depart="191" id="186" route="route11" type="CarA"/>
  <vehicle depart="192" id="187" route="route4" type="CarA"/>
  <vehicle depart="193" id="188" route="route7" type="CarA"/>
  <vehicle depart="193" id="189" route="route2" type="CarA"/>
  <vehicle depart="193" id="190" route="route10" type="CarA"/>
  <vehicle depart="193" id="191" route="route12" type="CarA"/>
  <vehicle depart="193" id="192" route="route2" type="CarA"/>
  <vehicle depart="195" id="193" route="route9" type="CarA"/>
  <vehicle depart="195" id="194" route="route4" type="CarA"/>
  <vehicle depart="196" id="195" route="route5" type="CarA"/>
  <vehicle depart="197" id="196" route="route6" type="CarA"/>
  <vehicle depart="199" id="197" route="route11" type="CarA"/>
  <vehicle depart="199" id="198" route="route12" type="CarA"/>
  <vehicle depart="202" id="199" route="route3" type="CarA"/>
  <vehicle depart="203" id="200" route="route2" type="CarA"/>
  <vehicle depart="204" id="201" route="route7" type="CarA"/>
  <vehicle depart="206" id="202" route="route10" type="CarA"/>
  <vehicle depart="209" id="203" route="route2" type="CarA"/>
  <vehicle depart="210" id="204" route="route9" type="CarA"/>
  <vehicle depart="212" id="205" route="route5" type="CarA"/>
  <vehicle depart="212" id="206" route="route10" type="CarA"/>
  <vehicle depart="215" id="207" route="route10" type="CarA"/>
  <vehicle depart="216" id="208" route="route7" type="CarA"/>
  <vehicle depart="218" id="209" route="route9" type="CarA"/>
  <vehicle depart="220" id="210" route="route11" type="CarA"/>
  <vehicle depart="221" id="211" route="route7" type="CarA"/>
  <vehicle depart="223" id="212" route="route6" type="CarA"/>
  <vehicle depart="224" id="213" route="route1" type="CarA"/>
  <vehicle depart="224" id="214" route="route12" type="CarA"/>
  <vehicle depart="227" id="215" route="route5" type="CarA"/>
  <vehicle depart="227" id="216" route="route10" type="CarA"/>
  <vehicle depart="230" id="217" route="route5" type="CarA"/>
  <vehicle depart="230" id="218" route="route6" type="CarA"/>
  <vehicle depart="232" id="219" route="route4" type="CarA"/>
  <vehicle depart="233" id="220" route="route1" type="CarA"/>
  <vehicle depart="234" id="221" route="route1" type="CarA"/>
  <vehicle depart="235" id="222" route="route9" type="CarA"/>
  <vehicle depart="237" id="223" route="route1" type="CarA"/>
  <vehicle depart="237" id="224" route="route7" type="CarA"/>
  <vehicle depart="238" id="225" route="route7" type="CarA"/>
  <vehicle depart="240" id="226" route="route5" type="CarA"/>
  <vehicle depart="241" id="227" route="route1" type="CarA"/>
  <vehicle depart="241" id="228" route="route9" type="CarA"/>
  <vehicle depart="244" id="229" route="route3" type="CarA"/>
  <vehicle depart="246" id="230" route="route2" type="CarA"/>
  <vehicle depart="247" id="231" route="route1" type="CarA"/>
  <vehicle depart="247" id="232" route="route10" type="CarA"/>
  <vehicle depart="247" id="233" route="route3" type="CarA"/>
  <vehicle depart="248" id="234" route="route11" type="CarA"/>
  <vehicle depart="248" id="235" route="route7" type="CarA"/>
  <vehicle depart="249" id="236" route="route7" type="CarA"/>
  <vehicle depart="250" id="237" route="route5" type="CarA"/>
  <vehicle depart="251" id="238" route="route2" type="CarA"/>
  <vehicle depart="253" id="239" route="route5" type="CarA"/>
  <vehicle depart="256" id="240" route="route10" type="CarA"/>
  <vehicle depart="258" id="241" route="route6" type="CarA"/>
  <vehicle depart="258" id="242" route="route11" type="CarA"/>
  <vehicle depart="258" id="243" route="route11" type="CarA"/>
  <vehicle depart="259" id="244" route="route5" type="CarA"/>
  <vehicle depart="261" id="245" route="route12" type="CarA"/>
  <vehicle depart="261" id="246" route="route6" type="CarA"/>
  <vehicle depart="262" id="247" route="route9" type="CarA"/>
  <vehicle depart="263" id="248" route="route9" type="CarA"/>
  <vehicle depart="263" id="249" route="route8" type="CarA"/>
  <vehicle depart="265" id="250" route="route4" type="CarA"/>
  <vehicle depart="266" id="251" route="route1" type="CarA"/>
  <vehicle depart="267" id="252" route="route3" type="CarA"/>
  <vehicle depart="267" id="253" route="route12" type="CarA"/>
  <vehicle depart="268" id="254" route="route1" type="CarA"/>
  <vehicle depart="269" id="255" route="route12" type="CarA"/>
  <vehicle depart="270" id="256" route="route5" type="CarA"/>
  <vehicle depart="271" id="257" route="route8" type="CarA"/>
  <vehicle depart="272" id="258" route="route12" type="CarA"/>
  <vehicle depart="274" id="259" route="route11" type="CarA"/>
  <vehicle depart="274" id="260" route="route12" type="CarA"/>
  <vehicle depart="276" id="261" route="route7" type="CarA"/>
  <vehicle depart="276" id="262" route="route3" type="CarA"/>
  <vehicle depart="277" id="263" route="route7" type="CarA"/>
  <vehicle depart="277" id="264" route="route1" type="CarA"/>
  <vehicle depart="278" id="265" route="route12" type="CarA"/>
  <vehicle depart="279" id="266" route="route3" type="CarA"/>
  <vehicle depart="279" id="267" route="route7" type="CarA"/>
  <vehicle depart="280" id="268" route="route4" type="CarA"/>
  <vehicle depart="284" id="269" route="route8" type="CarA"/>
  <vehicle depart="286" id="270" route="route5" type="CarA"/>
  <vehicle depart="287" id="271" route="route2" type="CarA"/>
  <vehicle depart="289" id="272" route="route3" type="CarA"/>
  <vehicle depart="290" id="273" route="route7" type="CarA"/>
  <vehicle depart="290" id="274" route="route9" type="CarA"/>
  <vehicle depart="291" id="275" route="route9" type="CarA"/>
  <vehicle depart="292" id="276" route="route4" type="CarA"/>
  <vehicle depart="293" id="277" route="route8" type="CarA"/>
  <vehicle depart="293" id="278" route="route1" type="CarA"/>
  <vehicle depart="293" id="279" route="route7" type="CarA"/>
  <vehicle depart="294" id="280" route="route10" type="CarA"/>
  <vehicle depart="294" id="281" route="route5" type="CarA"/>
  <vehicle depart="295" id="282" route="route8" type="CarA"/>
  <vehicle depart="296" id="283" route="route12" type="CarA"/>
  <vehicle depart="296" id="284" route="route8" type="CarA"/>
  <vehicle depart="299" id="285" route="route6" type="CarA"/>
  <vehicle depart="301" id="286" route="route2" type="CarA"/>
  <vehicle depart="301" id="287" route="route3" type="CarA"/>
  <vehicle depart="303" id="288" route="route10" type="CarA"/>
  <vehicle depart="304" id="289" route="route6" type="CarA"/>
  <vehicle depart="305" id="290" route="route3" type="CarA"/>
  <vehicle depart="306" id="291" route="route12" type="CarA"/>
  <vehicle depart="306" id="292" route="route6" type="CarA"/>
  <vehicle depart="307" id="293" route="route7" type="CarA"/>
  <vehicle depart="308" id="294" route="route12" type="CarA"/>
  <vehicle depart="308" id="295" route="route12" type="CarA"/>
  <vehicle depart="308" id="296" route="route7" type="CarA"/>
  <vehicle depart="308" id="297" route="route4" type="CarA"/>
  <vehicle depart="308" id="298" route="route4" type="CarA"/>
  <vehicle depart="309" id="299" route="route6" type="CarA"/>
  <vehicle depart="309" id="300" route="route7" type="CarA"/>
  <vehicle depart="309" id="301" route="route3" type="CarA"/>
  <vehicle depart="310" id="302" route="route4" type="CarA"/>
  <vehicle depart="313" id="303" route="route7" type="CarA"/>
  <vehicle depart="313" id="304" route="route10" type="CarA"/>
  <vehicle depart="313" id="305" route="route5" type="CarA"/>
  <vehicle depart="315" id="306" route="route3" type="CarA"/>
  <vehicle depart="315" id="307" route="route9" type="CarA"/>
  <vehicle depart="316" id="308" route="route3" type="CarA"/>
  <vehicle depart="317" id="309" route="route1" type="CarA"/>
  <vehicle depart="319" id="310" route="route11" type="CarA"/>
  <vehicle depart="319" id="311" route="route7" type="CarA"/>
  <vehicle depart="319" id="312" route="route1" type="CarA"/>
  <vehicle depart="320" id="313" route="route5" type="CarA"/>
  <vehicle depart="321" id="314" route="route11" type="CarA"/>
  <vehicle depart="321" id="315" route="route5" type="CarA"/>
  <vehicle depart="321" id="316" route="route1" type="CarA"/>
  <vehicle depart="321" id="317" route="route1" type="CarA"/>
  <vehicle depart="322" id="318" route="route12" type="CarA"/>
  <vehicle depart="323" id="319" route="route4" type="CarA"/>
  <vehicle depart="324" id="320" route="route4" type="CarA"/>
  <vehicle depart="326" id="321" route="route12" type="CarA"/>
  <vehicle depart="326" id="322" route="route7" type="CarA"/>
  <vehicle depart="327" id="323" route="route11" type="CarA"/>
  <vehicle depart="328" id="324" route="route12" type="CarA"/>
  <vehicle depart="330" id="325" route="route2" type="CarA"/>
  <vehicle depart="330" id="326" route="route9" type="CarA"/>
  <vehicle depart="332" id="327" route="route2" type="CarA"/>
  <vehicle depart="335" id="328" route="route7" type="CarA"/>
  <vehicle depart="336" id="329" route="route10" type="CarA"/>
  <vehicle depart="339" id="330" route="route8" type="CarA"/>
  <vehicle depart="342" id="331" route="route3" type="CarA"/>
  <vehicle depart="342" id="332" route="route8" type="CarA"/>
  <vehicle depart="344" id="333" route="route6" type="CarA"/>
  <vehicle depart="345" id="334" route="route2" type="CarA"/>
  <vehicle depart="347" id="335" route="route4" type="CarA"/>
  <vehicle depart="347" id="336" route="route3" type="CarA"/>
  <vehicle depart="347" id="337" route="route5" type="CarA"/>
  <vehicle depart="348" id="338" route="route2" type="CarA"/>
  <vehicle depart="350" id="339" route="route10" type="CarA"/>
  <vehicle depart="351" id="340" route="route12" type="CarA"/>
  <vehicle depart="352" id="341" route="route3" type="CarA"/>
  <vehicle depart="355" id="342" route="route5" type="CarA"/>
  <vehicle depart="356" id="343" route="route2" type="CarA"/>
  <vehicle depart="357" id="344" route="route10" type="CarA"/>
  <vehicle depart="357" id="345" route="route2" type="CarA"/>
  <vehicle depart="361" id="346" route="route6" type="CarA"/>
  <vehicle depart="362" id="347" route="route8" type="CarA"/>
  <vehicle depart="363" id="348" route="route10" type="CarA"/>
  <vehicle depart="365" id="349" route="route5" type="CarA"/>
  <vehicle depart="367" id="350" route="route6" type="CarA"/>
  <vehicle depart="368" id="351" route="route3" type="CarA"/>
  <vehicle depart="369" id="352" route="route4" type="CarA"/>
  <vehicle depart="369" id="353" route="route10" type="CarA"/>
  <vehicle depart="371" id="354" route="route8" type="CarA"/>
  <vehicle depart="373" id="355" route="route8" type="CarA"/>
  <vehicle depart="375" id="356" route="route4" type="CarA"/>
  <vehicle depart="376" id="357" route="route3" type="CarA"/>
  <vehicle depart="376" id="358" route="route6" type="CarA"/>
  <vehicle depart="377" id="359" route="route2" type="CarA"/>
  <vehicle depart="378" id="360" route="route11" type="CarA"/>
  <vehicle depart="378" id="361" route="route8" type="CarA"/>
  <vehicle depart="380" id="362" route="route11" type="CarA"/>
  <vehicle depart="380" id="363" route="route1" type="CarA"/>
  <vehicle depart="381" id="364" route="route2" type="CarA"/>
  <vehicle depart="382" id="365" route="route4" type="CarA"/>
  <vehicle depart="383" id="366" route="route6" type="CarA"/>
  <vehicle depart="384" id="367" route="route12" type="CarA"/>
  <vehicle depart="385" id="368" route="route12" type="CarA"/>
  <vehicle depart="387" id="369" route="route11" type="CarA"/>
  <vehicle depart="388" id="370" route="route8" type="CarA"/>
  <vehicle depart="388" id="371" route="route3" type="CarA"/>
  <vehicle depart="390" id="372" route="route8" type="CarA"/>
  <vehicle depart="391" id="373" route="route4" type="CarA"/>
  <vehicle depart="395" id="374" route="route6" type="CarA"/>
  <vehicle depart="395" id="375" route="route9" type="CarA"/>
  <vehicle depart="397" id="376" route="route10" type="CarA"/>
  <vehicle depart="397" id="377" route="route7" type="CarA"/>
  <vehicle depart="398" id="378" route="route2" type="CarA"/>
  <vehicle depart="401" id="379" route="route6" type="CarA"/>
  <vehicle depart="402" id="380" route="route3" type="CarA"/>
  <vehicle depart="402" id="381" route="route6" type="CarA"/>
  <vehicle depart="403" id="382" route="route11" type="CarA"/>
  <vehicle depart="404" id="383" route="route7" type="CarA"/>
  <vehicle depart="405" id="384" route="route4" type="CarA"/>
  <vehicle depart="405" id="385" route="route11" type="CarA"/>
  <vehicle depart="406" id="386" route="route10" type="CarA"/>
  <vehicle depart="406" id="387" route="route1" type="CarA"/>
  <vehicle depart="407" id="388" route="route2" type="CarA"/>
  <vehicle depart="407" id="389" route="route6" type="CarA"/>
  <vehicle depart="408" id="390" route="route7" type="CarA"/>
  <vehicle depart="410" id="391" route="route4" type="CarA"/>
  <vehicle depart="410" id="392" route="route3" type="CarA"/>
  <vehicle depart="410" id="393" route="route1" type="CarA"/>
  <vehicle depart="411" id="394" route="route9" type="CarA"/>
  <vehicle depart="412" id="395" route="route7" type="CarA"/>
  <vehicle depart="412" id="396" route="route7" type="CarA"/>
  <vehicle depart="412" id="397" route="route9" type="CarA"/>
  <vehicle depart="412" id="398" route="route3" type="CarA"/>
  <vehicle depart="413" id="399" route="route9" type="CarA"/>
  <vehicle depart="414" id="400" route="route9" type="CarA"/>
  <vehicle depart="414" id="401" route="route12" type="CarA"/>
  <vehicle depart="417" id="402" route="route8" type="CarA"/>
  <vehicle depart="417" id="403" route="route8" type="CarA"/>
  <vehicle depart="418" id="404" route="route8" type="CarA"/>
  <vehicle depart="420" id="405" route="route5" type="CarA"/>
  <vehicle depart="420" id="406" route="route9" type="CarA"/>
  <vehicle depart="421" id="407" route="route6" type="CarA"/>
  <vehicle depart="423" id="408" route="route5" type="CarA"/>
  <vehicle depart="424" id="409" route="route12" type="CarA"/>
  <vehicle depart="424" id="410" route="route1" type="CarA"/>
  <vehicle depart="428" id="411" route="route1" type="CarA"/>
  <vehicle depart="429" id="412" route="route6" type="CarA"/>
  <vehicle depart="430" id="413" route="route8" type="CarA"/>
  <vehicle depart="430" id="414" route="route4" type="CarA"/>
  <vehicle depart="430" id="415" route="route2" type="CarA"/>
  <vehicle depart="432" id="416" route="route6" type="CarA"/>
  <vehicle depart="432" id="417" route="route6" type="CarA"/>
  <vehicle depart="433" id="418" route="route9" type="CarA"/>
  <vehicle depart="433" id="419" route="route3" type="CarA"/>
  <vehicle depart="433" id="420" route="route1" type="CarA"/>
  <vehicle depart="434" id="421" route="route9" type="CarA"/>
  <vehicle depart="435" id="422" route="route7" type="CarA"/>
  <vehicle depart="436" id="423" route="route4" type="CarA"/>
  <vehicle depart="437" id="424" route="route7" type="CarA"/>
  <vehicle depart="437" id="425" route="route8" type="CarA"/>
  <vehicle depart="438" id="426" route="route7" type="CarA"/>
  <vehicle depart="441" id="427" route="route11" type="CarA"/>
  <vehicle depart="442" id="428" route="route12" type="CarA"/>
  <vehicle depart="443" id="429" route="route9" type="CarA"/>
  <vehicle depart="444" id="430" route="route10" type="CarA"/>
  <vehicle depart="444" id="431" route="route7" type="CarA"/>
  <vehicle depart="445" id="432" route="route3" type="CarA"/>
  <vehicle depart="445" id="433" route="route3" type="CarA"/>
  <vehicle depart="447" id="434" route="route2" type="CarA"/>
  <vehicle depart="447" id="435" route="route2" type="CarA"/>
  <vehicle depart="447" id="436" route="route12" type="CarA"/>
  <vehicle depart="447" id="437" route="route3" type="CarA"/>
  <vehicle depart="447" id="438" route="route2" type="CarA"/>
  <vehicle depart="449" id="439" route="route11" type="CarA"/>
  <vehicle depart="449" id="440" route="route4" type="CarA"/>
  <vehicle depart="449" id="441" route="route2" type="CarA"/>
  <vehicle depart="450" id="442" route="route7" type="CarA"/>
  <vehicle depart="451" id="443" route="route12" type="CarA"/>
  <vehicle depart="452" id="444" route="route8" type="CarA"/>
  <vehicle depart="455" id="445" route="route10" type="CarA"/>
  <vehicle depart="456" id="446" route="route5" type="CarA"/>
  <vehicle depart="456" id="447" route="route8" type="CarA"/>
  <vehicle depart="458" id="448" route="route10" type="CarA"/>
  <vehicle depart="460" id="449" route="route1" type="CarA"/>
  <vehicle depart="461" id="450" route="route1" type="CarA"/>
  <vehicle depart="462" id="451" route="route1" type="CarA"/>
  <vehicle depart="462" id="452" route="route11" type="CarA"/>
  <vehicle depart="462" id="453" route="route12" type="CarA"/>
  <vehicle depart="465" id="454" route="route9" type="CarA"/>
  <vehicle depart="465" id="455" route="route12" type="CarA"/>
  <vehicle depart="466" id="456" route="route6" type="CarA"/>
  <vehicle depart="466" id="457" route="route12" type="CarA"/>
  <vehicle depart="466" id="458" route="route3" type="CarA"/>
  <vehicle depart="468" id="459" route="route11" type="CarA"/>
  <vehicle depart="470" id="460" route="route6" type="CarA"/>
  <vehicle depart="470" id="461" route="route9" type="CarA"/>
  <vehicle depart="470" id="462" route="route7" type="CarA"/>
  <vehicle depart="471" id="463" route="route2" type="CarA"/>
  <vehicle depart="471" id="464" route="route6" type="CarA"/>
  <vehicle depart="471" id="465" route="route1" type="CarA"/>
  <vehicle depart="471" id="466" route="route9" type="CarA"/>
  <vehicle depart="472" id="467" route="route9" type="CarA"/>
  <vehicle depart="474" id="468" route="route6" type="CarA"/>
  <vehicle depart="474" id="469" route="route8" type="CarA"/>
  <vehicle depart="474" id="470" route="route2" type="CarA"/>
  <vehicle depart="475" id="471" route="route6" type="CarA"/>
  <vehicle depart="475" id="472" route="route11" type="CarA"/>